# Define the lattice
variable	lattice_constant equal 6.2045
lattice		diamond 6.2045
Lattice spacing in x,y,z = 6.2045 6.2045 6.2045

# Define region
# multiples of lattice spacing
region 		simbox block 0 5 0 5 0 5

# Create Atoms
create_box 	1 simbox
Created orthogonal box = (0 0 0) to (31.0225 31.0225 31.0225)
create_atoms 	1 box
Created 1000 atoms
  Time spent = 0.00036025 secs
mass		1 18.015

# Define potential

pair_style 	    sw
pair_coeff	    * * mW_real.sw mW
Reading potential file mW_real.sw with DATE: 2019-02-27

# Run minimization and output files

minimize 	    1.0e-8 1.0e-8 10000 1000
  update every 1 steps, delay 0 steps, check yes
Step Temp E_pair E_mol TotEng Press
0            0   -12377.971            0   -12377.971   -105.44223
Loop time of 0.000486016 on 10 procs for 1 steps with 1000 atoms

Minimization stats:
  Stopping criterion = energy tolerance
  Energy initial, next-to-last, final =
  Force two-norm initial, final = 2.38308e-12 2.38147e-12
  Force max component initial, final = 8.32326e-14 8.59243e-14
  Final line search alpha, max atom move = 1 8.59243e-14
  Iterations, force evaluations = 1 2

write_restart	min.ice_box_order_param.rst
write_data      min.ice_box_order_param.data

# Equilibration of ice

# Add velocity/set timestep

velocity	    all create 228 120598 rot yes dist gaussian
timestep	    5.0

# Define output
compute			1 all msd

thermo	    	50
thermo_style	custom step temp press vol etotal ke pe c_1[4]

# Neighbor lists

neigh_modify    delay 0 every 1 check yes

# Set fixes

fix             1 all momentum 10 linear 1 1 1 rescale
fix             2 all nve
fix             3 all temp/csvr 228 228 500.0 928347
fix             4 all press/berendsen iso 1 1 1000.0 modulus 20000

# Run 1 ns equilibration

dump		    1 all atom 1000 eq.ice_box_order_param-p1t228.dump

reset_timestep  0

run	            200000
Step Temp Press Volume TotEng KinEng PotEng c_1[4]
0          228    934.08797    29855.915   -11699.026    678.94507   -12377.971            0
Averages over the last 2001 of 4001 rows, steps 100000 to 200000:
Temp Press Volume TotEng KinEng PotEng c_1[4]
227.488 2.036 30449.3 -10960.5 677.419 -11637.9 0.129588
Loop time of 76.3847 on 10 procs for 200000 steps with 1000 atoms

write_restart   eq.ice_box_order_param-p1t228.rst

undump          1

reset_timestep  0

unfix           2
unfix           3
unfix           4

# compute mean square displacement
compute 		2 all hexorder/atom
compute			3 all msd

thermo	    	50
thermo_style	custom step temp press vol etotal ke pe c_3[4]

dump		    1 all custom 200 dump.ice_box_order_param id type x y z vx vy vz fx fy fz c_2[1]

# Set fixes

fix             2 all nph iso 1 1 10000.0
fix             3 all temp/csvr 228 228 5000.0 837492

# Run 5 ns simulation p = 1 atm, T = 300 K

#run	            2000000
run					100000
  update every 1 steps, delay 0 steps, check yes
Step Temp Press Volume TotEng KinEng PotEng c_3[4]
0    224.46384   -2.3568564    30449.347   -10957.043    668.41499   -11625.458            0
Averages over the last 1001 of 2001 rows, steps 50000 to 100000:
Temp Press Volume TotEng KinEng PotEng c_3[4]
230.044 0.0294754 30455.6 -10942.9 685.032 -11628 0.247503
Loop time of 38.6735 on 10 procs for 100000 steps with 1000 atoms

write_data      data.ice_box
write_restart   prod.ice_box_order_param-p1t228.rst
