# Create simulation box and atoms
lattice		    sc 1
Lattice spacing in x,y,z = 1 1 1
region 		    all block 0 50 0 50 0 50 units box
create_box 	    1 all
Created orthogonal box = (0 0 0) to (50 50 50)

create_atoms	1 random 4096 83782 all
Created 4096 atoms
  Time spent = 0.000442982 secs

mass		    1 18.15

# Define potential

pair_style 	    sw
pair_coeff	    * * mW_real.sw mW
Reading potential file mW_real.sw with DATE: 2019-02-27

# Run minimization and output files

minimize 	    1.0e-8 1.0e-8 10000 1000
  update every 1 steps, delay 0 steps, check yes
Step Temp E_pair E_mol TotEng Press
0            0    3558105.7            0    3558105.7    2737058.2
Loop time of 14.1148 on 1 procs for 707 steps with 4096 atoms

Minimization stats:
  Stopping criterion = max force evaluations
  Energy initial, next-to-last, final =
  Force two-norm initial, final = 3.20802e+07 5.56243
  Force max component initial, final = 1.17575e+07 2.03557
  Final line search alpha, max atom move = 0.0597483 0.121622
  Iterations, force evaluations = 707 1000

write_restart	min.liquid.rst
write_data      min.liquid.data

# Equilibration of molecular water

# Add velocity/set timestep

velocity	    all create 300 120598 rot yes dist gaussian
timestep	    5.0

# Define output

thermo	    	50
thermo_style	custom step temp press vol etotal ke pe

# Neighbor lists

neigh_modify    delay 0 every 1 check yes

# Set fixes

fix             1 all momentum 10 linear 1 1 1 rescale
fix             2 all nve
fix             3 all temp/csvr 300 300 500.0 928347
fix             4 all press/berendsen iso 1 1 1000.0 modulus 20000

# Run 1 ns equilibration

dump		    1 all atom 1000 eq.liquid-p1t300.dump

reset_timestep  0

run	            200000
Step Temp Press Volume TotEng KinEng PotEng
0          300      243.153       125000   -42493.718    3661.9251   -46155.643
Averages over the last 2001 of 4001 rows, steps 100000 to 200000:
Temp Press Volume TotEng KinEng PotEng
299.479 2.85076 122854 -37583.4 3655.57 -41238.9
Loop time of 2909.39 on 1 procs for 200000 steps with 4096 atoms

write_restart   eq.liquid-p1t300.rst

undump          1

reset_timestep  0

unfix           2
unfix           3
unfix           4

dump		    1 all atom 1000 prod.liquid-p1t300.dump

# Set fixes

fix             2 all nph iso 1 1 10000.0
fix             3 all temp/csvr 300 300 5000.0 837492

# Run 5 ns simulation p = 1 atm, T = 300 K

run	            1000000
Step Temp Press Volume TotEng KinEng PotEng
0    308.01316   -107.25559    122955.95    -37510.51    3759.7371   -41270.247
Averages over the last 10001 of 20001 rows, steps 500000 to 1000000:
Temp Press Volume TotEng KinEng PotEng
300.46 0.0871229 122883 -37553 3667.54 -41220.5
Loop time of 14627.4 on 1 procs for 1000000 steps with 4096 atoms

write_restart   prod.liquid-p1t300.rst
