# Create simulation box and atoms
lattice		    sc 1
Lattice spacing in x,y,z = 1 1 1
region 		    all block 0 50 0 50 0 50 units box
create_box 	    1 all
Created orthogonal box = (0 0 0) to (50 50 50)

create_atoms	1 random 4096 63782 all
Created 4096 atoms
  Time spent = 0.000571489 secs

mass		    1 18.015

# Define potential

pair_style 	    sw
pair_coeff	    * * mW_real.sw mW
Reading potential file mW_real.sw with DATE: 2019-02-27

# Run minimization and output files

minimize 	    1.0e-8 1.0e-8 10000 1000
  update every 1 steps, delay 0 steps, check yes
Step Temp E_pair E_mol TotEng Press
0            0    4841787.4            0    4841787.4    3675171.9
Loop time of 2.22485 on 10 procs for 707 steps with 4096 atoms

Minimization stats:
  Stopping criterion = max force evaluations
  Energy initial, next-to-last, final =
  Force two-norm initial, final = 1.26053e+08 2.6765
  Force max component initial, final = 6.83465e+07 0.918118
  Final line search alpha, max atom move = 0.0752436 0.0690825
  Iterations, force evaluations = 707 1001

write_restart	min.liquid_box_228K.rst
write_data      min.liquid_box_228K.data

# Equilibration of molecular water

# Add velocity/set timestep

velocity	    all create 28 120598 rot yes dist gaussian
timestep	    5.0

# Define output
compute			1 all msd

thermo	    	50
thermo_style	custom step temp press vol etotal ke pe c_1[4]

# Neighbor lists

neigh_modify    delay 0 every 1 check yes

# Set fixes

fix             1 all momentum 10 linear 1 1 1 rescale
fix             2 all nve
fix             3 all temp/csvr 28 28 500.0 928347
fix             4 all press/berendsen iso 1 1 1000.0 modulus 20000

# Run 1 ns equilibration

dump		    1 all atom 1000 eq.liquid_box_228K-p1t28.dump

reset_timestep  0

run	            200000
Step Temp Press Volume TotEng KinEng PotEng c_1[4]
0           28   -954.96196       125000   -45838.095    341.77968   -46179.874            0
Averages over the last 2001 of 4001 rows, steps 100000 to 200000:
Temp Press Volume TotEng KinEng PotEng c_1[4]
27.9757 1.11262 123453 -46282.6 341.483 -46624.1 1.4223
Loop time of 382.819 on 10 procs for 200000 steps with 4096 atoms

write_restart   eq.liquid_box_228K-p1t28.rst

undump          1

reset_timestep  0

unfix           2
unfix           3
unfix           4

# compute mean square displacement
compute			2 all msd

thermo	    	50
thermo_style	custom step temp press vol etotal ke pe c_2[4]

dump		    1 all atom 1000 prod.liquid_box_228K-p1t28.dump

# Set fixes

fix             2 all nph iso 1 1 10000.0
fix             3 all temp/csvr 28 28 5000.0 837492

# Run 5 ns simulation p = 1 atm, T = 228 K

#run	            1000000
run					100000
Step Temp Press Volume TotEng KinEng PotEng c_2[4]
0    27.838702     1.877012    123526.94    -46296.88    339.81081   -46636.691            0
Averages over the last 1001 of 2001 rows, steps 50000 to 100000:
Temp Press Volume TotEng KinEng PotEng c_2[4]
28.0976 1.67425 123515 -46305.9 342.971 -46648.9 0.0728266
Loop time of 192.653 on 10 procs for 100000 steps with 4096 atoms

write_data      data.liquid_box
write_restart   prod.liquid_box_228K-p1t28.rst
