# Create simulation box and atoms
lattice		    sc 1
Lattice spacing in x,y,z = 1 1 1
region 		    all block 0 50 0 50 0 50 units box
create_box 	    1 all
Created orthogonal box = (0 0 0) to (50 50 50)

create_atoms	1 random 4096 83782 all
Created 4096 atoms
  Time spent = 0.000692368 secs

mass		    1 18.15

# Define potential

pair_style 	    sw
pair_coeff	    * * mW_real.sw mW
Reading potential file mW_real.sw with DATE: 2019-02-27

# Run minimization and output files

minimize 	    1.0e-8 1.0e-8 10000 1000
  update every 1 steps, delay 0 steps, check yes
Step Temp E_pair E_mol TotEng Press
0            0    3558105.7            0    3558105.7    2737058.2
Loop time of 2.73868 on 8 procs for 717 steps with 4096 atoms

Minimization stats:
  Stopping criterion = max force evaluations
  Energy initial, next-to-last, final =
  Force two-norm initial, final = 3.20802e+07 3.97917
  Force max component initial, final = 1.17575e+07 0.989472
  Final line search alpha, max atom move = 0.0501042 0.0495767
  Iterations, force evaluations = 717 1000

write_restart	min.liquid_msd.rst
write_data      min.liquid_msd.data

# Equilibration of molecular water

# Add velocity/set timestep

velocity	    all create 298 120598 rot yes dist gaussian
timestep	    5.0

# Define output
compute			1 all msd

thermo	    	50
thermo_style	custom step temp press vol etotal ke pe c_1[4]

# Neighbor lists

neigh_modify    delay 0 every 1 check yes

# Set fixes

fix             1 all momentum 10 linear 1 1 1 rescale
fix             2 all nve
fix             3 all temp/csvr 298 298 500.0 928347
fix             4 all press/berendsen iso 1 1 1000.0 modulus 20000

# Run 1 ns equilibration

dump		    1 all atom 1000 eq.liquid_msd-p1t298.dump

reset_timestep  0

run	            200000
Step Temp Press Volume TotEng KinEng PotEng c_1[4]
0          298    208.22118       125000   -42546.643    3637.5123   -46184.156            0
Averages over the last 2001 of 4001 rows, steps 100000 to 200000:
Temp Press Volume TotEng KinEng PotEng c_1[4]
297.624 0.323562 122795 -37644.9 3632.92 -41277.8 2897
Loop time of 524.906 on 8 procs for 200000 steps with 4096 atoms

write_restart   eq.liquid_msd-p1t298.rst

undump          1

reset_timestep  0

unfix           2
unfix           3
unfix           4

# compute mean square displacement
compute			2 all msd

thermo	    	50
thermo_style	custom step temp press vol etotal ke pe c_2[4]

dump		    1 all atom 1000 prod.liquid_msd-p1t298.dump

# Set fixes

fix             2 all nph iso 1 1 10000.0
fix             3 all temp/csvr 298 298 5000.0 837492

# Run 5 ns simulation p = 1 atm, T = 300 K

#run	            1000000
run					100000
Step Temp Press Volume TotEng KinEng PotEng c_2[4]
0    303.41976   -162.61504    123131.79    -37644.59    3703.6681   -41348.258            0
Averages over the last 1001 of 2001 rows, steps 50000 to 100000:
Temp Press Volume TotEng KinEng PotEng c_2[4]
299.078 2.29866 122893 -37596.4 3650.67 -41247 1429.01
Loop time of 264.187 on 8 procs for 100000 steps with 4096 atoms

write_restart   prod.liquid_msd-p1t298.rst
