# Create simulation box and atoms
lattice		    sc 1
Lattice spacing in x,y,z = 1 1 1
region 		    all block 0 50 0 50 0 50 units box
create_box 	    1 all
Created orthogonal box = (0 0 0) to (50 50 50)

create_atoms	1 random 4096 83782 all
Created 4096 atoms
  Time spent = 0.000505924 secs

mass		    1 18.15

# Define potential

pair_style 	    sw
pair_coeff	    * * mW_real.sw mW
Reading potential file mW_real.sw with DATE: 2019-02-27

# Run minimization and output files

minimize 	    1.0e-8 1.0e-8 10000 1000
  update every 1 steps, delay 0 steps, check yes
Step Temp E_pair E_mol TotEng Press
0            0    3558105.7            0    3558105.7    2737058.2
Loop time of 2.02175 on 12 procs for 705 steps with 4096 atoms

Minimization stats:
  Stopping criterion = max force evaluations
  Energy initial, next-to-last, final =
  Force two-norm initial, final = 3.20802e+07 3.00429
  Force max component initial, final = 1.17575e+07 0.444838
  Final line search alpha, max atom move = 0.0668328 0.0297298
  Iterations, force evaluations = 705 1001

write_restart	min.liquid_msd_long.rst
write_data      min.liquid_msd_long.data

# Equilibration of molecular water

# Add velocity/set timestep

velocity	    all create 298 120598 rot yes dist gaussian
timestep	    5.0

# Define output
compute			1 all msd

thermo	    	50
thermo_style	custom step temp press vol etotal ke pe c_1[4]

# Neighbor lists

neigh_modify    delay 0 every 1 check yes

# Set fixes

fix             1 all momentum 10 linear 1 1 1 rescale
fix             2 all nve
fix             3 all temp/csvr 298 298 500.0 928347
fix             4 all press/berendsen iso 1 1 1000.0 modulus 20000

# Run 1 ns equilibration

dump		    1 all atom 1000 eq.liquid_msd_long-p1t298.dump

reset_timestep  0

run	            200000
Step Temp Press Volume TotEng KinEng PotEng c_1[4]
0          298    250.81112       125000   -42535.817    3637.5123    -46173.33            0
Averages over the last 2001 of 4001 rows, steps 100000 to 200000:
Temp Press Volume TotEng KinEng PotEng c_1[4]
297.669 -0.492483 122796 -37647.9 3633.47 -41281.4 2812.37
Loop time of 522.469 on 12 procs for 200000 steps with 4096 atoms

write_restart   eq.liquid_msd_long-p1t298.rst

undump          1

reset_timestep  0

unfix           2
unfix           3
unfix           4

# compute mean square displacement
compute			2 all msd

thermo	    	50
thermo_style	custom step temp press vol etotal ke pe c_2[4]

dump		    1 all atom 1000 prod.liquid_msd_long-p1t298.dump

# Set fixes

fix             2 all nph iso 1 1 10000.0
fix             3 all temp/csvr 298 298 5000.0 837492

# Run 5 ns simulation p = 1 atm, T = 300 K

run	            1000000
Step Temp Press Volume TotEng KinEng PotEng c_2[4]
0    299.35616    30.012202    122813.17   -37593.231    3654.0661   -41247.297            0
Averages over the last 10001 of 20001 rows, steps 500000 to 1000000:
Temp Press Volume TotEng KinEng PotEng c_2[4]
298.41 2.67313 122830 -37618.9 3642.52 -41261.4 14312.4
Loop time of 2157.4 on 12 procs for 1000000 steps with 4096 atoms

#run					100000
write_restart   prod.liquid_msd_long-p1t298.rst
