# Create simulation box of size 50 x 50 x 50 Angstrom
#
lattice	            sc 1
Lattice spacing in x,y,z = 1.0000000 1.0000000 1.0000000
region 	            all block 0 50 0 50 0 50 units box
create_box          1 all
Created orthogonal box = (0.0000000 0.0000000 0.0000000) to (50.000000 50.000000 50.000000)

# fill box with 4169 randomly distributed atoms
#
create_atoms        1 random 4169 63782 all
Created 4169 atoms
mass                1 18.015

# Define potential
#
pair_style          sw
pair_coeff          * * mW_real.sw mW
Reading sw potential file mW_real.sw with DATE: 2019-02-27

# Run minimization
#
minimize            1.0e-8 1.0e-8 10000 1000
  update every 1 steps, delay 0 steps, check yes
Step Temp E_pair E_mol TotEng Press
0            0    4900160.9            0    4900160.9    3723672.9
Loop time of 1.84048 on 6 procs for 710 steps with 4169 atoms

Minimization stats:
  Stopping criterion = max force evaluations
  Energy initial, next-to-last, final =
  Force two-norm initial, final = 1.2605426e+08 2.7266892
  Force max component initial, final = 68346525.0 1.1006115
  Final line search alpha, max atom move = 0.10767057 0.11850347
  Iterations, force evaluations = 710 1001

# Add velocity/set timestep
#
velocity            all create 275 120598 rot yes dist gaussian
timestep            5.0

# Define output
#
compute	            1 all msd
thermo	            100
thermo_style        custom step temp press vol etotal ke pe c_1[4] density

# Neighbor lists
#
neigh_modify        delay 0 every 1 check yes

# Set fixes
#
fix                 1 all momentum 10 linear 1 1 1 rescale
fix                 2 all nve
fix                 3 all temp/csvr 275 275 500.0 928347
fix                 4 all press/berendsen iso -1000 -1000 1000.0 modulus 20000

# Run 0.5 ns equilibration
#
dump                1 all custom 1000 eq.liquid_275K_1000atm_mW.dump id type x y z vx vy vz
run                 100000
Step Temp Press Volume TotEng KinEng PotEng c_1[4] Density
710          275    520.78895       125000   -43715.689    3416.6045   -47132.294 1.9461438e-33   0.99771203
Averages over the last 501 of 1002 rows, steps 50800 to 100710:
Temp Press Volume TotEng KinEng PotEng c_1[4] Density
274.644 -997.445 127407 -39011.9 3412.18 -42424.1 990.204 0.97887
Loop time of 177.109 on 6 procs for 100000 steps with 4169 atoms

undump              1
unfix               2
unfix               3
unfix               4

################################################
#######         Run Simulation         #########
################################################

reset_timestep      0
log                 log.run_liquid_275K_1000atm_mW
