# Create simulation box of size ~50 x 30 x 30 Angstrom
#
lattice	            sc 1
Lattice spacing in x,y,z = 1 1 1
region 	            all block 0 50.0330198878204 0 31.2706374298874 0 31.2706374298874 units box
create_box          1 all
Created orthogonal box = (0 0 0) to (50.033 31.2706 31.2706)

# fill box with randomly distributed atoms
#
create_atoms        1 random 1565 63782 all
Created 1565 atoms
  Time spent = 0.000431776 secs
mass                1 18.015
group               water region all
1565 atoms in group water

# Define potential
#
pair_style          sw
pair_coeff          * * mW_real.sw mW
Reading potential file mW_real.sw with DATE: 2019-02-27

# Run minimization
#
minimize            1.0e-8 1.0e-8 10000 1000
  update every 1 steps, delay 0 steps, check yes
Step Temp E_pair E_mol TotEng Press
0            0    7172501.9            0    7172501.9     13558635
Loop time of 0.868555 on 10 procs for 658 steps with 1565 atoms

Minimization stats:
  Stopping criterion = max force evaluations
  Energy initial, next-to-last, final =
  Force two-norm initial, final = 3.87863e+08 1.68061
  Force max component initial, final = 2.1828e+08 0.403605
  Final line search alpha, max atom move = 0.118104 0.0476673
  Iterations, force evaluations = 658 1001

# Add velocity/set timestep
#
velocity            all create 280 120598 rot yes dist gaussian
timestep            10.0

# Define output
#
compute	            1 all msd
thermo	            50
thermo_style        custom step temp press vol etotal ke pe c_1[4]

# Neighbor lists
#
neigh_modify        delay 0 every 1 check yes

# Set fixes
#
fix                 1 all momentum 10 linear 1 1 1 rescale
fix                 2 all nve
fix                 3 all temp/csvr 280 280 500.0 928347
fix                 4 all press/berendsen iso 0 0 1000.0 modulus 20000

# Run 1 ns equilibration
#
dump                1 all atom 1000 eq.water.setup_atoms_280K_00.dump
run                 100000
Step Temp Press Volume TotEng KinEng PotEng c_1[4]
658          280   -261.72055    48924.927   -16262.996    1305.3563   -17568.352            0
Averages over the last 1001 of 2002 rows, steps 50700 to 100658:
Temp Press Volume TotEng KinEng PotEng c_1[4]
279.413 9.60577 46770 -14592.8 1302.62 -15895.4 2322.06
Loop time of 88.7783 on 10 procs for 100000 steps with 1565 atoms

undump              1
reset_timestep      0
#unfix               2
#unfix               3
#unfix               4

################################################
#######           Insert Ice           #########
################################################

log                 log.setup_atoms_280K_00.eq_all
