# Create simulation box of size ~50 x 30 x 30 Angstrom
#
lattice	            sc 1
Lattice spacing in x,y,z = 1 1 1
region 	            all block 0 50.0180991944182 0 31.2613119965131 0 31.2613119965131 units box
create_box          1 all
Created orthogonal box = (0 0 0) to (50.0181 31.2613 31.2613)

# fill box with randomly distributed atoms
#
create_atoms        1 random 1565 63782 all
Created 1565 atoms
  Time spent = 0.00181937 secs
mass                1 18.015
group               water region all
1565 atoms in group water

# Define potential
#
pair_style          sw
pair_coeff          * * mW_real.sw mW
Reading potential file mW_real.sw with DATE: 2019-02-27

# Run minimization
#
minimize            1.0e-8 1.0e-8 10000 1000
  update every 1 steps, delay 0 steps, check yes
Step Temp E_pair E_mol TotEng Press
0            0    7181163.5            0    7181163.5     13587162
Loop time of 0.824013 on 10 procs for 662 steps with 1565 atoms

Minimization stats:
  Stopping criterion = max force evaluations
  Energy initial, next-to-last, final =
  Force two-norm initial, final = 3.88443e+08 1.55399
  Force max component initial, final = 2.18607e+08 0.196173
  Final line search alpha, max atom move = 0.126158 0.0247488
  Iterations, force evaluations = 662 1000

# Add velocity/set timestep
#
velocity            all create 280 120598 rot yes dist gaussian
timestep            10.0

# Define output
#
compute	            1 all msd
thermo	            50
thermo_style        custom step temp press vol etotal ke pe c_1[4]

# Neighbor lists
#
neigh_modify        delay 0 every 1 check yes

# Set fixes
#
fix                 1 all momentum 10 linear 1 1 1 rescale
fix                 2 all nve
fix                 3 all temp/csvr 280 280 500.0 928347
fix                 4 all press/berendsen iso 0 0 1000.0 modulus 20000

# Run 1 ns equilibration
#
dump                1 all atom 1000 eq.water.setup_atoms_280K_00.dump
run                 100000
Step Temp Press Volume TotEng KinEng PotEng c_1[4]
662          280   -536.88376    48881.169   -16217.291    1305.3563   -17522.647            0
Averages over the last 1001 of 2002 rows, steps 50700 to 100662:
Temp Press Volume TotEng KinEng PotEng c_1[4]
279.359 4.63718 46765.8 -14589.5 1302.37 -15891.9 2245.93
Loop time of 88.3934 on 10 procs for 100000 steps with 1565 atoms

undump              1
reset_timestep      0
#unfix               2
#unfix               3
#unfix               4

################################################
#######           Insert Ice           #########
################################################

log                 log.setup_atoms_280K_00.eq_all
