# Define the lattice
#
variable	    lattice_constant equal 6.2045
lattice		    diamond 6.2045
Lattice spacing in x,y,z = 6.2045 6.2045 6.2045

# Define region
# multiples of lattice spacing
#
region 		    simbox block 0 4 0 5 0 5

# Create Atoms
#
create_box          1 simbox
Created orthogonal box = (0 0 0) to (24.818 31.0225 31.0225)
create_atoms        1 box
Created 800 atoms
  Time spent = 0.000442028 secs
mass                1 18.015

# Define potential
#
pair_style          sw
pair_coeff          * * mW_real.sw mW
Reading potential file mW_real.sw with DATE: 2019-02-27

# Add velocity/set timestep
#
velocity            all create 273 120598 rot yes dist gaussian
timestep            10.0

# Define output
#
compute	            1 all msd
thermo              50
thermo_style        custom step temp press vol etotal ke pe c_1[4]

# Neighbor lists
#
neigh_modify        delay 0 every 1 check yes

# Set fixes
#
fix                 1 all momentum 10 linear 1 1 1 rescale
fix                 2 all nve
fix                 3 all temp/csvr 273 273 500.0 928347
fix                 4 all press/berendsen iso 0 0 1000.0 modulus 20000

# Run 1 ns equilibration
#
dump		    1 all atom 1000 eq.ice_box_273K_00.dump
run	            100000
  update every 1 steps, delay 0 steps, check yes
Step Temp Press Volume TotEng KinEng PotEng c_1[4]
0          273    1138.9469    23884.732   -9252.1815    650.19515   -9902.3767            0
Averages over the last 1001 of 2001 rows, steps 50000 to 100000:
Temp Press Volume TotEng KinEng PotEng c_1[4]
272.392 -1.17405 24459.5 -8518.22 648.747 -9166.97 0.167718
Loop time of 31.3909 on 10 procs for 100000 steps with 800 atoms

# Create data file for import to other simulations
#
write_data          data.ice_box
