# Create simulation box of size ~50 x 30 x 30 Angstrom
#
lattice	            sc 1
Lattice spacing in x,y,z = 1 1 1
region 	            all block 0 50.0292181887708 0 31.2682613679801 0 31.2682613679801 units box
create_box          1 all
Created orthogonal box = (0 0 0) to (50.0292 31.2683 31.2683)

# fill box with randomly distributed atoms
#
create_atoms        1 random 1565 63782 all
Created 1565 atoms
  Time spent = 0.000541449 secs
mass                1 18.015
group               water region all
1565 atoms in group water

# Define potential
#
pair_style          sw
pair_coeff          * * mW_real.sw mW
Reading potential file mW_real.sw with DATE: 2019-02-27

# Run minimization
#
minimize            1.0e-8 1.0e-8 10000 1000
  update every 1 steps, delay 0 steps, check yes
Step Temp E_pair E_mol TotEng Press
0            0    7174707.6            0    7174707.6     13565897
Loop time of 0.849751 on 10 procs for 642 steps with 1565 atoms

Minimization stats:
  Stopping criterion = max force evaluations
  Energy initial, next-to-last, final =
  Force two-norm initial, final = 3.88011e+08 1.8042
  Force max component initial, final = 2.18364e+08 0.367645
  Final line search alpha, max atom move = 0.0761148 0.0279832
  Iterations, force evaluations = 642 1000

# Add velocity/set timestep
#
velocity            all create 280 120598 rot yes dist gaussian
timestep            10.0

# Define output
#
compute	            1 all msd
thermo	            50
thermo_style        custom step temp press vol etotal ke pe c_1[4]

# Neighbor lists
#
neigh_modify        delay 0 every 1 check yes

# Set fixes
#
fix                 1 all momentum 10 linear 1 1 1 rescale
fix                 2 all nve
fix                 3 all temp/csvr 280 280 500.0 928347
fix                 4 all press/berendsen iso 0 0 1000.0 modulus 20000

# Run 1 ns equilibration
#
dump                1 all atom 1000 eq.water.setup_atoms_280K_00.dump
run                 100000
Step Temp Press Volume TotEng KinEng PotEng c_1[4]
642          280   -83.257877    48913.775   -16231.134    1305.3563    -17536.49            0
Averages over the last 1001 of 2002 rows, steps 50650 to 100642:
Temp Press Volume TotEng KinEng PotEng c_1[4]
279.654 -11.4724 46781.1 -14591.6 1303.74 -15895.3 2384.88
Loop time of 88.587 on 10 procs for 100000 steps with 1565 atoms

undump              1
reset_timestep      0
#unfix               2
#unfix               3
#unfix               4

################################################
#######           Insert Ice           #########
################################################

log                 log.setup_atoms_280K_00.eq_all
