# Create simulation box of size ~50 x 30 x 30 Angstrom
#
lattice	            sc 1
Lattice spacing in x,y,z = 1 1 1
region 	            all block 0 25.0223281649564 0 31.277910206195 0 31.277910206195 units box
create_box          1 all
Created orthogonal box = (0 0 0) to (25.0223 31.2779 31.2779)

# fill box with randomly distributed atoms
#
create_atoms        1 random 782 63782 all
Created 782 atoms
  Time spent = 0.000404596 secs
mass                1 18.015

# Define potential
#
pair_style          sw
pair_coeff          * * mW_real.sw mW
Reading potential file mW_real.sw with DATE: 2019-02-27

# Run minimization
#
minimize            1.0e-8 1.0e-8 10000 1000
  update every 1 steps, delay 0 steps, check yes
Step Temp E_pair E_mol TotEng Press
0            0    342236.67            0    342236.67    1391068.2
Loop time of 0.282303 on 12 procs for 475 steps with 782 atoms

Minimization stats:
  Stopping criterion = energy tolerance
  Energy initial, next-to-last, final =
  Force two-norm initial, final = 3.57626e+06 0.0622477
  Force max component initial, final = 2.45873e+06 0.00746309
  Final line search alpha, max atom move = 1 0.00746309
  Iterations, force evaluations = 475 740

# Add velocity/set timestep
#
velocity            all create 280 120598 rot yes dist gaussian
timestep            10.0

# Define output
#
compute	            1 all msd
thermo	            5000
thermo_style        custom step temp press vol etotal ke pe c_1[4]

# Neighbor lists
#
neigh_modify        delay 0 every 1 check yes

# Set fixes
#
fix                 1 all momentum 10 linear 1 1 1 rescale
fix                 2 all nve
fix                 3 all temp/csvr 280 280 500.0 928347
fix                 4 all press/berendsen iso 0 0 1000.0 modulus 20000

# Run 1 ns equilibration
#
dump                1 all custom 5000 eq.water.setup_atoms_280K_01.dump id type x y z vx vy vz
run                 100000
Step Temp Press Volume TotEng KinEng PotEng c_1[4]
475          280   -444.21567    24479.535   -8153.5926    651.84354   -8805.4361            0
Averages over the last 11 of 22 rows, steps 55000 to 100475:
Temp Press Volume TotEng KinEng PotEng c_1[4]
279.095 36.134 23342.6 -7295.04 649.736 -7944.77 2192.11
Loop time of 42.6993 on 12 procs for 100000 steps with 782 atoms

undump              1
unfix               2
unfix               3
unfix               4

################################################
#######         Run Simulation         #########
################################################

reset_timestep      0
log                 log.run_setup_atoms_280K_01
