# Create simulation box of size ~50 x 30 x 30 Angstrom
#
lattice	            sc 1
Lattice spacing in x,y,z = 1 1 1
region 	            all block 0 50.0446563299128 0 31.277910206195 0 31.277910206195 units box
create_box          1 all
Created orthogonal box = (0 0 0) to (50.0447 31.2779 31.2779)

# fill box with randomly distributed atoms
#
create_atoms        1 random 1565 63782 all
Created 1565 atoms
  Time spent = 0.000412703 secs
mass                1 18.015
group               water region all
1565 atoms in group water

# Define potential
#
pair_style          sw
pair_coeff          * * mW_real.sw mW
Reading potential file mW_real.sw with DATE: 2019-02-27

# Run minimization
#
minimize            1.0e-8 1.0e-8 10000 1000
  update every 1 steps, delay 0 steps, check yes
Step Temp E_pair E_mol TotEng Press
0            0    7165755.8            0    7165755.8     13536435
Loop time of 0.76391 on 12 procs for 666 steps with 1565 atoms

Minimization stats:
  Stopping criterion = max force evaluations
  Energy initial, next-to-last, final =
  Force two-norm initial, final = 3.87412e+08 2.41637
  Force max component initial, final = 2.18026e+08 0.335903
  Final line search alpha, max atom move = 0.0629223 0.0211358
  Iterations, force evaluations = 666 1001

# Add velocity/set timestep
#
velocity            all create 280 120598 rot yes dist gaussian
timestep            10.0

# Define output
#
compute	            1 all msd
compute             2 all orientorder/atom nnn NULL
thermo	            1000
thermo_style        custom step temp press vol etotal ke pe c_1[4]

# Neighbor lists
#
neigh_modify        delay 0 every 1 check yes

# Set fixes
#
fix                 1 all momentum 10 linear 1 1 1 rescale
fix                 2 all nve
fix                 3 all temp/csvr 280 280 500.0 928347
fix                 4 all press/berendsen iso 0 0 1000.0 modulus 20000

# Run 1 ns equilibration
#
dump                1 all custom 1000 eq.water.setup_atoms_280K_01.dump id type x y z vx vy vz c_2[*]
run                 10000
  update every 1 steps, delay 0 steps, check yes
Step Temp Press Volume TotEng KinEng PotEng c_1[4]
666          280   -132.35838    48959.071   -16294.231    1305.3563   -17599.588            0
Averages over the last 6 of 12 rows, steps 6000 to 10666:
Temp Press Volume TotEng KinEng PotEng c_1[4]
276.874 -6.99704 46738.1 -14606.8 1290.78 -15897.6 230.56
Loop time of 7.93325 on 12 procs for 10000 steps with 1565 atoms
