# Define the lattice
#
variable	    lattice_constant equal 6.36339
lattice		    diamond 6.36339
Lattice spacing in x,y,z = 6.3633900 6.3633900 6.3633900

# Define region
# multiples of lattice spacing
#
region 		    simbox block 0 8 0 8 0 8

# Create Atoms
#
create_box          1 simbox
Created orthogonal box = (0.0000000 0.0000000 0.0000000) to (50.907120 50.907120 50.907120)
create_atoms        1 box
Created 4096 atoms
mass                1 18.015

# Define potential
#
pair_style          sw
pair_coeff          * * mW_real.sw mW
Reading sw potential file mW_real.sw with DATE: 2019-02-27

# Add velocity/set timestep
#
velocity            all create 273 120598 rot yes dist gaussian
timestep            5.0

# Define output
#
compute	            1 all msd
thermo              100
thermo_style        custom step temp press vol etotal ke pe c_1[4]

# Neighbor lists
#
neigh_modify        delay 0 every 1 check yes

# Set fixes
#
fix                 1 all momentum 10 linear 1 1 1 rescale
fix                 2 all nve
fix                 3 all temp/csvr 273 273 500.0 928347
fix                 4 all press/berendsen iso 1 1 1000.0 modulus 20000

# Run 0.5 ns equilibration
#
dump		    1 all custom 1000 eq.ice_273K_1atm_mW.dump id type x y z vx vy vz
run                 100000
  update every 1 steps, delay 0 steps, check yes
Step Temp Press Volume TotEng KinEng PotEng c_1[4]
0          273   -4579.0166    131927.58   -46937.445    3332.3519   -50269.797            0
Averages over the last 501 of 1001 rows, steps 50000 to 100000:
Temp Press Volume TotEng KinEng PotEng c_1[4]
272.538 0.332019 125209 -43662.7 3326.71 -46989.4 0.352343
Loop time of 127.717 on 6 procs for 100000 steps with 4096 atoms

undump              1
unfix               2
unfix               3
unfix               4

################################################
#######         Run Simulation         #########
################################################

reset_timestep      0
log                 log.run_ice_273K_1atm_mW
