## Load water molecules from data file
read_data	data.liquid_box group water extra/atom/types 1
  orthogonal box = (0.110297 0.110297 0.110297) to (49.8897 49.8897 49.8897)
  reading atoms ...
  4096 atoms
  reading velocities ...
  4096 velocities

## Water box volumetric data:

# 1.1029689232492146e-01 4.9889703107673952e+01 xlo xhi
# 1.1029689232492146e-01 4.9889703107673952e+01 ylo yhi
# 1.1029689232492146e-01 4.9889703107673952e+01 zlo zhi
variable WAT_LO equal 1.1029689232492146e-01
variable WAT_HI equal 4.9889703107673952e+01

## Ice Seed volumetric data:

# -1.3037346316586529e-01 3.1152873463165356e+01 xlo xhi
# -1.3037346316586529e-01 3.1152873463165356e+01 ylo yhi
# -1.3037346316586529e-01 3.1152873463165356e+01 zlo zhi
variable ICE_LO equal -1.3037346316586529e-01
variable ICE_HI equal 3.1152873463165356e+01
variable ICE_WIDTH equal v_ICE_HI-v_ICE_LO

## Delete water molecules from region where ice seed will be placed

region seed block 0.110296892324921 31.2832469263313 0.110296892324921 31.2832469263313 0.110296892324921 31.2832469263313
delete_atoms region seed compress yes
Deleted 1013 atoms, new total = 3083

## Load Ice seed from data file
variable SHIFT equal v_WAT_LO-v_ICE_LO
read_data data.ice_box add append offset 1 0 0 0 0 shift 0.240670355490786 0.240670355490786 0.240670355490786 group ice
  orthogonal box = (0.110297 0.110297 0.110297) to (49.8897 49.8897 49.8897)
  reading atoms ...
  1000 atoms
  reading velocities ...
  1000 velocities

## Define potential

pair_style 	    sw
pair_coeff	    * * mW_real.sw mW mW
Reading potential file mW_real.sw with DATE: 2019-02-27

## Delete water and ice atoms that are overlapping
delete_atoms overlap 2.5 water ice
  update every 1 steps, delay 10 steps, check yes
Deleted 180 atoms, new total = 3903

## Equilibrate contact point

## Run
timestep	    5.0

compute			1 all msd
compute 		2 all orientorder/atom

thermo	    	50
thermo_style	custom step temp press vol etotal ke pe c_1[4]

# Neighbor lists

neigh_modify    delay 0 every 1 check yes

# Set fixes

fix             1 all momentum 10 linear 1 1 1 rescale
fix             2 ice nve
fix		3 water nve
fix             4 all temp/csvr 228 228 500.0 928347
fix             5 all press/berendsen iso 1 1 1000.0 modulus 20000

# Run 0.5 ns equilibration

dump		    1 all atom 200 eq.ice_seed_228K_equilibrate_test0-p1t228.dump
dump 		    2 all custom 200 dump.ice_seed_228K_equilibrate_test0-test id type x y z vx vy vz fx fy fz c_2[*]

#write_data      data.add_ice_test

run	            100000
  update every 1 steps, delay 0 steps, check yes
Step Temp Press Volume TotEng KinEng PotEng c_1[4]
0    77.146156    101.57224    123352.84   -41441.925    897.29626   -42339.221            0
Averages over the last 1001 of 2001 rows, steps 50000 to 100000:
Temp Press Volume TotEng KinEng PotEng c_1[4]
228.044 1.06374 118757 -40572.5 2652.41 -43224.9 175.95
Loop time of 190.443 on 10 procs for 100000 steps with 3903 atoms
