# Load water molecules from data file
read_data	data.liquid_box group water extra/atom/types 1
  orthogonal box = (0.110297 0.110297 0.110297) to (49.8897 49.8897 49.8897)
  reading atoms ...
  4096 atoms
  reading velocities ...
  4096 velocities

# Water box volumetric data:

# 1.1029689232492146e-01 4.9889703107673952e+01 xlo xhi
# 1.1029689232492146e-01 4.9889703107673952e+01 ylo yhi
# 1.1029689232492146e-01 4.9889703107673952e+01 zlo zhi
variable WAT_LO equal 1.1029689232492146e-01
variable WAT_HI equal 4.9889703107673952e+01

# Ice Seed volumetric data:

# -1.3037346316586529e-01 3.1152873463165356e+01 xlo xhi
# -1.3037346316586529e-01 3.1152873463165356e+01 ylo yhi
# -1.3037346316586529e-01 3.1152873463165356e+01 zlo zhi
variable ICE_LO equal -1.3037346316586529e-01
variable ICE_HI equal 3.1152873463165356e+01
variable ICE_WIDTH equal v_ICE_HI-v_ICE_LO

# Delete water molecules from region where ice seed will be placed

region seed block 0.110296892324921 31.2832469263313 0.110296892324921 31.2832469263313 0.110296892324921 31.2832469263313
delete_atoms region seed compress yes
Deleted 1013 atoms, new total = 3083

# Load Ice seed from data file
variable SHIFT equal v_WAT_LO-v_ICE_LO
read_data data.ice_box add append offset 1 0 0 0 0 shift 0.240670355490786 0.240670355490786 0.240670355490786 group ice
  orthogonal box = (0.110297 0.110297 0.110297) to (49.8897 49.8897 49.8897)
  reading atoms ...
  1000 atoms
  reading velocities ...
  1000 velocities

# Define potential

pair_style 	    sw
pair_coeff	    * * mW_real.sw mW mW
Reading potential file mW_real.sw with DATE: 2019-02-27

# Run minimization and output files

minimize 	    1.0e-8 1.0e-8 10000 1000
  update every 1 steps, delay 0 steps, check yes
Step Temp E_pair E_mol TotEng Press
0    74.983751   -26965.277            0   -26052.899    18645.305
Loop time of 1.58691 on 10 procs for 495 steps with 4083 atoms

Minimization stats:
  Stopping criterion = energy tolerance
  Energy initial, next-to-last, final =
  Force two-norm initial, final = 36048.5 0.153803
  Force max component initial, final = 18647.9 0.0256884
  Final line search alpha, max atom move = 1 0.0256884
  Iterations, force evaluations = 495 799

write_restart	min.ice_seed_228K_groups_test.rst
write_data      min.ice_seed_228K_groups_test.data

# Run
timestep	    5.0

compute			1 all msd

thermo	    	50
thermo_style	custom step temp press vol etotal ke pe c_1[4]

# Neighbor lists

neigh_modify    delay 0 every 1 check yes

# Set fixes

fix             1 all momentum 10 linear 1 1 1 rescale
fix             2 all nve
fix             3 all temp/csvr 228 228 500.0 928347
fix             4 all press/berendsen iso 1 1 1000.0 modulus 20000

# Run 1 ns equilibration

dump		    1 all atom 1000 eq.ice_seed_228K_groups_test-p1t228.dump

write_data      data.add_ice_test

run	            100000
Step Temp Press Volume TotEng KinEng PotEng c_1[4]
495    74.983751    247.61693    123352.84   -46128.395    912.37729   -47040.772            0
Averages over the last 1001 of 2002 rows, steps 50500 to 100495:
Temp Press Volume TotEng KinEng PotEng c_1[4]
228.078 1.17048 124557 -43982.2 2775.17 -46757.4 126.561
Loop time of 173.453 on 10 procs for 100000 steps with 4083 atoms
