# Load water molecules from data file
read_data	data.liquid_box
  orthogonal box = (0.110297 0.110297 0.110297) to (49.8897 49.8897 49.8897)
  reading atoms ...
  4096 atoms
  reading velocities ...
  4096 velocities

mass		    1 18.015

# Define potential

pair_style 	    sw
pair_coeff	    * * mW_real.sw mW
Reading potential file mW_real.sw with DATE: 2019-02-27

# Water box volumetric data:

# 1.1029689232492146e-01 4.9889703107673952e+01 xlo xhi
# 1.1029689232492146e-01 4.9889703107673952e+01 ylo yhi
# 1.1029689232492146e-01 4.9889703107673952e+01 zlo zhi

# Ice Seed volumetric data:

# -1.3037346316586529e-01 3.1152873463165356e+01 xlo xhi
# -1.3037346316586529e-01 3.1152873463165356e+01 ylo yhi
# -1.3037346316586529e-01 3.1152873463165356e+01 zlo zhi
variable ICE_LO equal -1.3037346316586529e-01
variable ICE_HI equal 3.1152873463165356e+01

# Delete water molecules from region where ice seed will be placed
# delete_atoms

# Load Ice seed from data file

# Run
timestep	    5.0

compute			1 all msd

thermo	    	50
thermo_style	custom step temp press vol etotal ke pe c_1[4]

# Neighbor lists

neigh_modify    delay 0 every 1 check yes

# Set fixes

fix             1 all momentum 10 linear 1 1 1 rescale
fix             2 all nve
fix             3 all temp/csvr 228 228 500.0 928347
fix             4 all press/berendsen iso 1 1 1000.0 modulus 20000

# Run 1 ns equilibration

dump		    1 all atom 1000 eq.ice_seed_220K_water_test-p1t228.dump

run	            200000
  update every 1 steps, delay 0 steps, check yes
Step Temp Press Volume TotEng KinEng PotEng c_1[4]
0    27.905844    174.20949    123352.84   -46318.569    340.63037     -46659.2            0
Averages over the last 2001 of 4001 rows, steps 100000 to 200000:
Temp Press Volume TotEng KinEng PotEng c_1[4]
227.723 1.02763 122402 -40284.4 2779.68 -43064.1 792.426
Loop time of 418.283 on 10 procs for 200000 steps with 4096 atoms
