# Load water molecules from data file
read_data	data.liquid_box group water
  orthogonal box = (0.110297 0.110297 0.110297) to (49.8897 49.8897 49.8897)
  reading atoms ...
  4096 atoms
  reading velocities ...
  4096 velocities

mass		    1 18.015

# Define potential

pair_style 	    sw
pair_coeff	    * * mW_real.sw mW
Reading potential file mW_real.sw with DATE: 2019-02-27

# Water box volumetric data:

# 1.1029689232492146e-01 4.9889703107673952e+01 xlo xhi
# 1.1029689232492146e-01 4.9889703107673952e+01 ylo yhi
# 1.1029689232492146e-01 4.9889703107673952e+01 zlo zhi
variable WAT_LO equal 1.1029689232492146e-01
variable WAT_HI equal 4.9889703107673952e+01

# Ice Seed volumetric data:

# -1.3037346316586529e-01 3.1152873463165356e+01 xlo xhi
# -1.3037346316586529e-01 3.1152873463165356e+01 ylo yhi
# -1.3037346316586529e-01 3.1152873463165356e+01 zlo zhi
variable ICE_LO equal -1.3037346316586529e-01
variable ICE_HI equal 3.1152873463165356e+01
variable ICE_WIDTH equal v_ICE_HI-v_ICE_LO

# Delete water molecules from region where ice seed will be placed

region seed block 0.110296892324921 31.2832469263313 0.110296892324921 31.2832469263313 0.110296892324921 31.2832469263313
delete_atoms region seed compress yes
Deleted 1013 atoms, new total = 3083

# Load Ice seed from data file

# Run
timestep	    5.0

compute			1 all msd

thermo	    	50
thermo_style	custom step temp press vol etotal ke pe c_1[4]

# Neighbor lists

neigh_modify    delay 0 every 1 check yes

# Set fixes

fix             1 all momentum 10 linear 1 1 1 rescale
fix             2 all nve
fix             3 all temp/csvr 228 228 500.0 928347
fix             4 all press/berendsen iso 1 1 1000.0 modulus 20000

# Run 1 ns equilibration

dump		    1 all atom 1000 eq.ice_seed_228K_delete_test-p1t228.dump

run	            100000
  update every 1 steps, delay 0 steps, check yes
Step Temp Press Volume TotEng KinEng PotEng c_1[4]
0    28.143139   -284.25698    123352.84   -33524.184    258.54698   -33782.731            0
Averages over the last 1001 of 2001 rows, steps 50000 to 100000:
Temp Press Volume TotEng KinEng PotEng c_1[4]
227.629 4.21045 92182.6 -30325.4 2091.2 -32416.6 410.512
Loop time of 159.672 on 10 procs for 100000 steps with 3083 atoms
